124081876
  -OEChem-07042310223D

 53 58  0     1  0  0  0  0  0999 V2000
   -2.0830   -3.1175   -1.0152 S   0  0  0  0  0  0  0  0  0  0  0  0
   -5.1528   -0.7447   -1.3235 F   0  0  0  0  0  0  0  0  0  0  0  0
   -6.1006    0.7640    0.7155 F   0  0  0  0  0  0  0  0  0  0  0  0
   -0.1725    4.0457   -1.5525 O   0  0  0  0  0  0  0  0  0  0  0  0
    2.7143    2.4502    1.7605 O   0  0  0  0  0  0  0  0  0  0  0  0
    4.6716    0.9179    0.9545 O   0  0  0  0  0  0  0  0  0  0  0  0
    5.2693   -1.2782   -0.6398 O   0  0  0  0  0  0  0  0  0  0  0  0
    0.1106    0.4241   -0.6517 N   0  0  2  0  0  0  0  0  0  0  0  0
    0.7481    2.4504    0.5423 N   0  0  0  0  0  0  0  0  0  0  0  0
    1.4776    0.0960   -0.6952 N   0  0  0  0  0  0  0  0  0  0  0  0
   -0.0774    1.8664   -0.5112 C   0  0  1  0  0  0  0  0  0  0  0  0
   -0.5366   -0.3288    0.4286 C   0  0  1  0  0  0  0  0  0  0  0  0
    0.1735    2.6679   -1.7930 C   0  0  0  0  0  0  0  0  0  0  0  0
    0.4222    3.8461    0.8136 C   0  0  0  0  0  0  0  0  0  0  0  0
   -2.0367   -0.0921    0.4791 C   0  0  0  0  0  0  0  0  0  0  0  0
    2.4153    0.7256    0.1248 C   0  0  0  0  0  0  0  0  0  0  0  0
    1.9908    1.9399    0.9077 C   0  0  0  0  0  0  0  0  0  0  0  0
   -0.0250   -1.7651    0.5253 C   0  0  0  0  0  0  0  0  0  0  0  0
    0.6023    4.6265   -0.4906 C   0  0  0  0  0  0  0  0  0  0  0  0
   -2.9214   -0.5742   -0.4999 C   0  0  0  0  0  0  0  0  0  0  0  0
    1.8641   -0.9496   -1.5132 C   0  0  0  0  0  0  0  0  0  0  0  0
   -0.5837   -2.9280   -0.0456 C   0  0  0  0  0  0  0  0  0  0  0  0
    3.7031    0.3182    0.1824 C   0  0  0  0  0  0  0  0  0  0  0  0
   -2.5617    0.6850    1.5324 C   0  0  0  0  0  0  0  0  0  0  0  0
   -2.4441   -1.4536   -1.6144 C   0  0  0  0  0  0  0  0  0  0  0  0
    1.1866   -1.9063    1.2549 C   0  0  0  0  0  0  0  0  0  0  0  0
    3.1023   -1.4517   -1.5589 C   0  0  0  0  0  0  0  0  0  0  0  0
   -4.2939   -0.2777   -0.4049 C   0  0  0  0  0  0  0  0  0  0  0  0
    4.1222   -0.8441   -0.6674 C   0  0  0  0  0  0  0  0  0  0  0  0
    0.0678   -4.1682    0.1630 C   0  0  0  0  0  0  0  0  0  0  0  0
   -3.9240    0.9733    1.6147 C   0  0  0  0  0  0  0  0  0  0  0  0
    1.8136   -3.1365    1.4401 C   0  0  0  0  0  0  0  0  0  0  0  0
   -4.7912    0.4927    0.6434 C   0  0  0  0  0  0  0  0  0  0  0  0
    1.2493   -4.2733    0.8940 C   0  0  0  0  0  0  0  0  0  0  0  0
   -1.1149    2.0950   -0.2462 H   0  0  0  0  0  0  0  0  0  0  0  0
   -0.1879    0.1098    1.3772 H   0  0  0  0  0  0  0  0  0  0  0  0
    1.2158    2.6181   -2.1298 H   0  0  0  0  0  0  0  0  0  0  0  0
   -0.4650    2.3076   -2.6064 H   0  0  0  0  0  0  0  0  0  0  0  0
    1.0626    4.2577    1.5991 H   0  0  0  0  0  0  0  0  0  0  0  0
   -0.6195    3.8853    1.1503 H   0  0  0  0  0  0  0  0  0  0  0  0
    1.6546    4.6487   -0.7978 H   0  0  0  0  0  0  0  0  0  0  0  0
    0.2680    5.6602   -0.3593 H   0  0  0  0  0  0  0  0  0  0  0  0
    1.0845   -1.3506   -2.1535 H   0  0  0  0  0  0  0  0  0  0  0  0
   -3.2131   -1.5440   -2.3895 H   0  0  0  0  0  0  0  0  0  0  0  0
   -1.5746   -1.0271   -2.1231 H   0  0  0  0  0  0  0  0  0  0  0  0
   -1.9060    1.0836    2.3038 H   0  0  0  0  0  0  0  0  0  0  0  0
    1.6194   -1.0623    1.7865 H   0  0  0  0  0  0  0  0  0  0  0  0
    3.3805   -2.2708   -2.2087 H   0  0  0  0  0  0  0  0  0  0  0  0
   -0.3427   -5.0888   -0.2523 H   0  0  0  0  0  0  0  0  0  0  0  0
   -4.3036    1.5749    2.4350 H   0  0  0  0  0  0  0  0  0  0  0  0
    2.7250   -3.2022    2.0262 H   0  0  0  0  0  0  0  0  0  0  0  0
    1.7201   -5.2415    1.0340 H   0  0  0  0  0  0  0  0  0  0  0  0
    4.2897    1.6573    1.4512 H   0  0  0  0  0  0  0  0  0  0  0  0
  1 22  1  0  0  0  0
  1 25  1  0  0  0  0
  2 28  1  0  0  0  0
  3 33  1  0  0  0  0
  4 13  1  0  0  0  0
  4 19  1  0  0  0  0
  5 17  2  0  0  0  0
  6 23  1  0  0  0  0
  6 53  1  0  0  0  0
  7 29  2  0  0  0  0
  8 10  1  0  0  0  0
  8 11  1  0  0  0  0
  8 12  1  0  0  0  0
  9 11  1  0  0  0  0
  9 14  1  0  0  0  0
  9 17  1  0  0  0  0
 10 16  1  0  0  0  0
 10 21  1  0  0  0  0
 11 13  1  0  0  0  0
 11 35  1  0  0  0  0
 12 15  1  0  0  0  0
 12 18  1  0  0  0  0
 12 36  1  0  0  0  0
 13 37  1  0  0  0  0
 13 38  1  0  0  0  0
 14 19  1  0  0  0  0
 14 39  1  0  0  0  0
 14 40  1  0  0  0  0
 15 20  2  0  0  0  0
 15 24  1  0  0  0  0
 16 17  1  0  0  0  0
 16 23  2  0  0  0  0
 18 22  1  0  0  0  0
 18 26  2  0  0  0  0
 19 41  1  0  0  0  0
 19 42  1  0  0  0  0
 20 25  1  0  0  0  0
 20 28  1  0  0  0  0
 21 27  2  0  0  0  0
 21 43  1  0  0  0  0
 22 30  2  0  0  0  0
 23 29  1  0  0  0  0
 24 31  2  0  0  0  0
 24 46  1  0  0  0  0
 25 44  1  0  0  0  0
 25 45  1  0  0  0  0
 26 32  1  0  0  0  0
 26 47  1  0  0  0  0
 27 29  1  0  0  0  0
 27 48  1  0  0  0  0
 28 33  2  0  0  0  0
 30 34  1  0  0  0  0
 30 49  1  0  0  0  0
 31 33  1  0  0  0  0
 31 50  1  0  0  0  0
 32 34  2  0  0  0  0
 32 51  1  0  0  0  0
 34 52  1  0  0  0  0
M  END
> <PUBCHEM_COMPOUND_CID>
124081876

> <PUBCHEM_CONFORMER_RMSD>
0.8

> <PUBCHEM_CONFORMER_DIVERSEORDER>
1
2

> <PUBCHEM_MMFF94_PARTIAL_CHARGES>
43
1 -0.33
10 -0.21
11 0.57
12 0.56
13 0.28
14 0.3
15 -0.14
16 0.11
17 0.62
18 -0.14
19 0.28
2 -0.19
20 -0.14
21 -0.05
22 0.1
23 0.09
24 -0.15
25 0.37
26 -0.15
27 -0.14
28 0.19
29 0.54
3 -0.19
30 -0.15
31 -0.15
32 -0.15
33 0.19
34 -0.15
4 -0.56
43 0.15
46 0.15
47 0.15
48 0.15
49 0.15
5 -0.57
50 0.15
51 0.15
52 0.15
53 0.45
6 -0.53
7 -0.57
8 -0.53
9 -0.66

> <PUBCHEM_EFFECTIVE_ROTOR_COUNT>
2.6

> <PUBCHEM_PHARMACOPHORE_FEATURES>
10
1 4 acceptor
1 5 acceptor
1 6 donor
1 7 acceptor
6 10 16 21 23 27 29 rings
6 15 20 24 28 31 33 rings
6 18 22 26 30 32 34 rings
6 4 9 11 13 14 19 rings
6 8 9 10 11 16 17 rings
7 1 12 15 18 20 22 25 rings

> <PUBCHEM_HEAVY_ATOM_COUNT>
34

> <PUBCHEM_ATOM_DEF_STEREO_COUNT>
2

> <PUBCHEM_ATOM_UDEF_STEREO_COUNT>
0

> <PUBCHEM_BOND_DEF_STEREO_COUNT>
0

> <PUBCHEM_BOND_UDEF_STEREO_COUNT>
0

> <PUBCHEM_ISOTOPIC_ATOM_COUNT>
0

> <PUBCHEM_COMPONENT_COUNT>
1

> <PUBCHEM_CACTVS_TAUTO_COUNT>
3

> <PUBCHEM_CONFORMER_ID>
076556D400000001

> <PUBCHEM_MMFF94_ENERGY>
121.2111

> <PUBCHEM_FEATURE_SELFOVERLAP>
50.87

> <PUBCHEM_SHAPE_FINGERPRINT>
10006869 2 18051129186236591173
10190108 129 17904515946043459657
10906281 52 18268439099881636984
10930396 42 18265308739117397856
1100329 8 18339081608836154707
11421498 54 18043263352648953986
11578080 2 16446165457285643799
12107698 1 18057040431088297207
12553582 1 18337944589275040747
12633257 1 18266159786443832368
12788726 201 18336836278066331806
13140716 1 18408888451502409890
13149001 5 18120115002199629870
133893 2 17318445762761426292
13583140 156 18260546745456756419
13911987 19 18042427818512219326
13965767 371 17337628581675819417
140371 6 17689992757947219634
14790565 3 18336276686250269996
14955137 171 18335720346261592723
15420108 30 17483695407148761785
15439362 3 18193562391715324325
16728300 4 12605176621453677252
17492 89 18056196023221853191
1813 80 18334019388746499348
19591789 44 18410573950971119426
20600515 1 18338815488905675652
20642791 13 18055062426970726186
20691752 17 18408877451953611706
20905425 154 17904212433515875078
21033648 29 18201712925873270049
21421861 104 17975990756042950186
22393880 68 18340758278876107671
22907989 373 16750442583117068293
23558518 356 17979071909783675819
23559900 14 17985541397557197976
283562 15 18264498273960658156
3178227 256 18263947547616147627
3493558 16 17846499296092159832
350125 39 17831025632931641594
404807 14 15189142170323078670
463206 1 18335422339845496563
469060 322 17897751780648635248
474 4 18266174114243936169
484985 159 14538098168537057078
70251023 43 18052553066226282487

> <PUBCHEM_SHAPE_MULTIPOLES>
650.59
7.94
5.48
1.62
5.27
1.19
0.13
-0.24
-0.35
-2.05
-0.11
0.08
0.18
-0.5

> <PUBCHEM_SHAPE_SELFOVERLAP>
1444.802

> <PUBCHEM_SHAPE_VOLUME>
349.3

> <PUBCHEM_COORDINATE_TYPE>
2
5
10

$$$$
